Version 4
SHEET 1 880 680
WIRE -128 144 -400 144
WIRE 16 144 -48 144
WIRE 208 144 16 144
WIRE 16 192 16 144
WIRE 208 208 208 144
WIRE -400 224 -400 144
WIRE 112 256 16 256
WIRE 112 304 112 256
WIRE 224 304 224 272
WIRE 224 304 112 304
WIRE -400 336 -400 304
WIRE 16 336 -400 336
WIRE 192 336 192 272
WIRE 192 336 16 336
WIRE 16 352 16 336
FLAG 16 352 0
SYMBOL AutoGenerated\\S4006RS2 208 240 R90
SYMATTR InstName U1
SYMBOL zener 32 256 R180
WINDOW 0 24 64 Left 2
WINDOW 3 24 0 Left 2
SYMATTR InstName D1
SYMATTR Value TDZ15B
SYMATTR Description Diode
SYMATTR Type diode
SYMBOL res 0 240 R0
SYMATTR InstName R1
SYMATTR Value 470
SYMBOL voltage -400 208 R0
WINDOW 123 0 0 Left 2
WINDOW 39 0 0 Left 2
SYMATTR InstName V1
SYMATTR Value PULSE(0 20 0 100m 1m 1m 102m)
SYMBOL res -32 128 R90
WINDOW 0 0 56 VBottom 2
WINDOW 3 32 56 VTop 2
SYMATTR InstName R2
SYMATTR Value 0.1
TEXT -434 376 Left 2 !.tran 250m startup uic
