Version 4
SHEET 1 880 680
WIRE 144 -32 -64 -32
WIRE 320 -32 240 -32
WIRE 320 32 320 -32
WIRE -64 64 -64 -32
WIRE -64 288 -64 144
WIRE 160 288 -64 288
WIRE 224 288 224 16
WIRE 224 288 160 288
WIRE 320 288 320 112
WIRE 320 288 224 288
WIRE 160 304 160 288
FLAG 160 304 0
SYMBOL voltage -64 48 R0
WINDOW 123 0 0 Left 2
WINDOW 39 0 0 Left 2
SYMATTR InstName V1
SYMATTR Value PULSE(5 -5 0 1 0 0)
SYMBOL pmos 144 16 R270
SYMATTR InstName M1
SYMATTR Value FDS4465
SYMBOL res 304 16 R0
SYMATTR InstName R1
SYMATTR Value 100
TEXT -98 328 Left 2 !.tran 1
TEXT 408 80 Left 2 ;LOAD
TEXT 120 32 Left 2 ;PMOS
