Version 4
SHEET 1 1792 1060
WIRE -272 -128 -272 -144
WIRE -272 -32 -272 -48
WIRE -272 -32 -352 -32
WIRE -272 -16 -272 -32
WIRE 320 -16 288 -16
WIRE -352 16 -352 -32
WIRE 288 16 288 -16
WIRE 288 16 -32 16
WIRE 480 16 416 16
WIRE 800 16 480 16
WIRE 288 48 288 16
WIRE 320 48 320 -16
WIRE 416 48 416 16
WIRE -272 96 -272 64
WIRE 336 112 336 96
WIRE 336 112 288 112
WIRE -32 128 -32 16
WIRE 480 144 480 16
WIRE 336 160 336 112
WIRE -448 192 -608 192
WIRE -288 208 -368 208
WIRE -224 208 -288 208
WIRE -128 208 -144 208
WIRE -80 208 -128 208
WIRE -448 224 -496 224
WIRE -32 272 -32 224
WIRE -32 272 -256 272
WIRE -128 304 -128 208
WIRE -32 304 -32 272
WIRE -848 368 -1056 368
WIRE -496 368 -496 224
WIRE -496 368 -848 368
WIRE -128 400 -128 384
WIRE -32 400 -32 384
WIRE -32 400 -128 400
WIRE 336 400 336 240
WIRE 336 400 -32 400
WIRE 480 400 480 224
WIRE 480 400 336 400
WIRE -752 416 -960 416
WIRE -288 416 -288 208
WIRE -288 416 -752 416
WIRE 800 464 800 16
WIRE 800 464 304 464
WIRE -496 480 -496 368
WIRE -432 480 -496 480
WIRE -288 480 -288 416
WIRE -288 480 -368 480
WIRE -128 480 -128 400
WIRE -848 512 -848 368
WIRE -752 512 -752 416
WIRE -496 512 -496 480
WIRE -1056 528 -1056 368
WIRE -960 528 -960 416
WIRE 304 528 304 464
WIRE -800 592 -800 576
WIRE -1008 608 -1008 592
WIRE 304 624 304 608
WIRE 304 624 272 624
WIRE 304 640 304 624
WIRE -592 656 -656 656
WIRE -496 656 -496 592
WIRE -496 656 -512 656
WIRE -480 656 -496 656
WIRE -256 656 -256 272
WIRE -256 656 -400 656
WIRE -656 688 -656 656
WIRE 144 720 144 704
WIRE 144 720 96 720
WIRE 352 720 304 720
WIRE 352 736 352 720
WIRE 144 752 144 720
WIRE 32 784 32 768
WIRE 32 784 -128 784
WIRE 272 784 272 624
WIRE 272 784 32 784
WIRE 32 800 32 784
WIRE 144 848 144 832
WIRE 144 848 96 848
WIRE 144 864 144 848
WIRE 32 928 32 896
FLAG -352 16 0
FLAG 352 736 0
FLAG 32 592 0
FLAG -608 32 0
FLAG -656 768 0
FLAG -608 272 0
FLAG -272 -144 +7VA
FLAG -272 96 -7VA
FLAG -368 176 +7VA
FLAG -368 240 -7VA
FLAG -1008 688 0
FLAG -800 672 0
FLAG -128 480 0
FLAG 144 1024 0
FLAG 32 1008 0
FLAG 144 544 0
SYMBOL nmos -80 128 R0
SYMATTR InstName M1
SYMATTR Value RSJ451N04
SYMBOL res -48 288 R0
SYMATTR InstName R1
SYMATTR Value 0.1
SYMBOL voltage -272 -144 R0
WINDOW 123 0 0 Left 2
WINDOW 39 0 0 Left 2
SYMATTR InstName V3
SYMATTR Value 7
SYMBOL voltage -272 -32 R0
WINDOW 123 0 0 Left 2
WINDOW 39 0 0 Left 2
SYMATTR InstName V4
SYMATTR Value 7
SYMBOL zener 304 112 R180
WINDOW 0 24 64 Left 2
WINDOW 3 24 0 Left 2
SYMATTR InstName D1
SYMATTR Value UDZV16B
SYMATTR Description Diode
SYMATTR Type diode
SYMBOL res 320 144 R0
SYMATTR InstName R2
SYMATTR Value 100k
SYMBOL pmos 416 96 M270
SYMATTR InstName M2
SYMATTR Value FDS4559_P
SYMBOL res 288 512 R0
SYMATTR InstName R3
SYMATTR Value 110K
SYMBOL res 288 624 R0
SYMATTR InstName R4
SYMATTR Value 77.7K
SYMBOL pnp 96 896 R180
SYMATTR InstName Q1
SYMATTR Value BC857A
SYMBOL npn 96 672 M0
SYMATTR InstName Q3
SYMATTR Value BC847A
SYMBOL voltage 32 688 M180
WINDOW 123 0 0 Left 2
WINDOW 39 0 0 Left 2
SYMATTR InstName V8
SYMATTR Value 7
SYMBOL voltage 480 128 R0
WINDOW 123 0 0 Left 2
WINDOW 39 24 124 Left 2
SYMATTR SpiceLine Rser=10m
SYMATTR InstName V6
SYMATTR Value PULSE(-8 8 0 100m 100m 100m 350m)
SYMBOL res -128 192 R90
WINDOW 0 0 56 VBottom 2
WINDOW 3 32 56 VTop 2
SYMATTR InstName R6
SYMATTR Value 90
SYMBOL cap -368 464 R90
WINDOW 0 0 32 VBottom 2
WINDOW 3 32 32 VTop 2
SYMATTR InstName C1
SYMATTR Value 50p
SYMBOL voltage -608 128 R180
WINDOW 123 0 0 Left 2
WINDOW 39 0 0 Left 2
SYMATTR InstName V1
SYMATTR Value 2
SYMBOL res -624 96 R0
SYMATTR InstName R8
SYMATTR Value 90K
SYMBOL res -592 288 R180
WINDOW 0 36 76 Left 2
WINDOW 3 36 40 Left 2
SYMATTR InstName R9
SYMATTR Value 9.2K
SYMBOL voltage -656 672 R0
WINDOW 123 0 0 Left 2
WINDOW 39 0 0 Left 2
SYMATTR InstName V2
SYMATTR Value 7
SYMBOL res -384 640 R90
WINDOW 0 0 56 VBottom 2
WINDOW 3 32 56 VTop 2
SYMATTR InstName R10
SYMATTR Value 330
SYMBOL res -496 640 R90
WINDOW 0 0 56 VBottom 2
WINDOW 3 32 56 VTop 2
SYMATTR InstName R11
SYMATTR Value 100K
SYMBOL res -144 288 R0
SYMATTR InstName R12
SYMATTR Value 20k
SYMBOL AutoGenerated\\AD8671 -416 208 R0
SYMATTR InstName U1
SYMBOL res -480 608 R180
WINDOW 0 36 76 Left 2
WINDOW 3 36 40 Left 2
SYMATTR InstName R5
SYMATTR Value 5k
SYMBOL pnp -1056 592 R270
SYMATTR InstName Q2
SYMATTR Value BC857A
SYMBOL voltage -1008 592 M0
WINDOW 123 0 0 Left 2
WINDOW 39 0 0 Left 2
SYMATTR InstName V5
SYMATTR Value 2.5
SYMBOL npn -848 576 R270
SYMATTR InstName Q4
SYMATTR Value BC847A
SYMBOL voltage -800 576 M0
WINDOW 123 0 0 Left 2
WINDOW 39 0 0 Left 2
SYMATTR InstName V11
SYMATTR Value 0
SYMBOL res 128 736 R0
SYMATTR InstName R13
SYMATTR Value 1.07k
SYMBOL res 128 608 R0
SYMATTR InstName R14
SYMATTR Value 5.36k
SYMBOL res 128 848 R0
SYMATTR InstName R15
SYMATTR Value 3.57k
SYMBOL voltage 144 928 M0
WINDOW 123 0 0 Left 2
WINDOW 39 0 0 Left 2
SYMATTR InstName V7
SYMATTR Value 7
SYMBOL voltage 32 1024 M180
WINDOW 123 0 0 Left 2
WINDOW 39 0 0 Left 2
SYMATTR InstName V9
SYMATTR Value 7
SYMBOL voltage 144 528 M0
WINDOW 123 0 0 Left 2
WINDOW 39 0 0 Left 2
SYMATTR InstName V10
SYMATTR Value 7
TEXT 104 456 Left 2 !.tran 300m startup uic
TEXT -208 712 Left 2 ;Clip @ -0.05V
TEXT -208 864 Left 2 ;Clip @ 2.6
