Version 4
SHEET 1 1136 888
WIRE 688 176 688 160
WIRE 480 416 400 416
WIRE 368 464 336 464
WIRE 480 464 480 416
WIRE 480 464 464 464
WIRE 512 464 480 464
WIRE 544 464 512 464
WIRE 656 464 624 464
WIRE 848 464 656 464
WIRE 912 464 848 464
WIRE 976 464 912 464
WIRE 512 480 512 464
WIRE 48 496 48 480
WIRE 128 496 48 496
WIRE 320 496 320 416
WIRE 320 496 304 496
WIRE 384 528 384 512
WIRE 384 528 304 528
WIRE 848 544 848 528
WIRE 912 544 912 528
WIRE 912 544 848 544
WIRE 128 560 64 560
WIRE 368 560 304 560
WIRE 448 560 432 560
WIRE 656 560 656 544
WIRE 688 560 656 560
WIRE 800 560 768 560
WIRE 848 560 848 544
WIRE 656 576 656 560
WIRE 656 576 560 576
WIRE 128 592 112 592
WIRE 336 592 336 464
WIRE 336 592 304 592
WIRE 448 592 448 560
WIRE 112 608 112 592
WIRE 336 608 336 592
WIRE 656 608 656 576
WIRE 800 624 800 560
WIRE 64 688 64 560
WIRE 560 688 560 576
WIRE 560 688 64 688
FLAG 688 256 0
FLAG 688 160 +12V
FLAG 336 608 +12V
FLAG 112 608 0
FLAG 800 704 0
FLAG 848 560 0
FLAG 976 544 0
FLAG 448 592 0
FLAG 512 544 0
FLAG 656 688 0
FLAG 48 528 +12V
FLAG 48 400 +12V
SYMBOL pmos 464 512 M270
SYMATTR InstName M1
SYMATTR Value FDS4435A
SYMBOL voltage 688 160 R0
WINDOW 123 0 0 Left 2
WINDOW 39 24 124 Left 2
SYMATTR InstName V1
SYMATTR Value 12
SYMBOL res 144 512 R90
WINDOW 0 0 56 VBottom 2
WINDOW 3 32 56 VTop 2
SYMATTR InstName R1
SYMATTR Value 110K
SYMBOL res 64 496 R180
WINDOW 0 36 76 Left 2
WINDOW 3 36 40 Left 2
SYMATTR InstName R4
SYMATTR Value 8.2K
SYMBOL schottky 528 544 R180
WINDOW 0 24 64 Left 2
WINDOW 3 24 0 Left 2
SYMATTR InstName D1
SYMATTR Value ZLLS2000
SYMATTR Description Diode
SYMATTR Type diode
SYMBOL voltage 800 608 R0
WINDOW 123 0 0 Left 2
WINDOW 39 0 0 Left 2
SYMATTR InstName V2
SYMATTR Value 0
SYMBOL cap 832 464 R0
SYMATTR InstName C2
SYMATTR Value 47µ
SYMATTR SpiceLine Rser=0.5
SYMBOL cap 896 464 R0
SYMATTR InstName C3
SYMATTR Value 47µ
SYMATTR SpiceLine Rser=0.5
SYMBOL res 960 448 R0
SYMATTR InstName R6
SYMATTR Value 36
SYMBOL ind 640 448 R90
WINDOW 0 5 56 VBottom 2
WINDOW 3 32 56 VTop 2
SYMATTR InstName L1
SYMATTR Value 47µ
SYMBOL cap 432 544 R90
WINDOW 0 0 32 VBottom 2
WINDOW 3 32 32 VTop 2
SYMATTR InstName C5
SYMATTR Value 470n
SYMATTR SpiceLine Rser=0.5
SYMBOL res 640 448 R0
SYMATTR InstName R2
SYMATTR Value 33K
SYMBOL res 640 592 R0
SYMATTR InstName R7
SYMATTR Value 4.87K
SYMBOL res 784 544 R90
WINDOW 0 0 56 VBottom 2
WINDOW 3 32 56 VTop 2
SYMATTR InstName R8
SYMATTR Value 18.2K
SYMBOL res 416 400 R90
WINDOW 0 0 56 VBottom 2
WINDOW 3 32 56 VTop 2
SYMATTR InstName R3
SYMATTR Value 100
SYMBOL AutoGenerated\\LM25085_TRANS 208 544 R0
SYMATTR InstName U1
TEXT 784 200 Left 2 !.tran 0 100m 0 startup uic
