Version 4
SHEET 1 880 680
WIRE -464 64 -544 64
WIRE -544 80 -544 64
WIRE -464 80 -464 64
WIRE -160 112 -288 112
WIRE 256 112 240 112
WIRE -240 160 -240 80
WIRE -464 176 -464 160
WIRE -320 176 -464 176
WIRE -288 176 -288 112
WIRE -272 176 -288 176
WIRE -464 192 -464 176
WIRE -464 192 -560 192
WIRE -160 192 -160 112
WIRE -160 192 -208 192
WIRE -144 192 -160 192
WIRE -48 192 -64 192
WIRE 0 192 -48 192
WIRE 80 192 0 192
WIRE 144 192 80 192
WIRE 240 192 240 112
WIRE 240 192 224 192
WIRE 336 192 320 192
WIRE 464 192 400 192
WIRE -320 208 -320 176
WIRE -272 208 -320 208
WIRE -48 208 -48 192
WIRE 80 208 80 192
WIRE 464 256 464 192
WIRE -464 272 -560 272
WIRE -240 272 -240 224
WIRE -464 304 -464 272
WIRE 208 304 208 240
WIRE 208 320 208 304
WIRE 208 416 208 400
FLAG 80 272 0
FLAG -48 272 0
FLAG 160 240 0
FLAG 208 416 0
FLAG 464 256 0
FLAG -464 304 0
FLAG -544 160 0
FLAG 0 192 InputCap
FLAG -240 0 0
FLAG -240 352 0
FLAG 208 304 switch
FLAG 256 112 samplecap
SYMBOL res 336 176 R90
WINDOW 0 0 56 VBottom 2
WINDOW 3 32 56 VTop 2
SYMATTR InstName R1
SYMATTR Value 130
SYMBOL cap 400 176 R90
WINDOW 0 0 32 VBottom 2
WINDOW 3 32 32 VTop 2
SYMATTR InstName C1
SYMATTR Value 40p
SYMBOL sw 128 192 R270
SYMATTR InstName S1
SYMATTR Value MYSW
SYMBOL cap 64 208 R0
SYMATTR InstName C2
SYMATTR Value 8p
SYMBOL cap -64 208 R0
SYMATTR InstName C3
SYMATTR Value 47n
SYMBOL res -48 176 R90
WINDOW 0 0 56 VBottom 2
WINDOW 3 32 56 VTop 2
SYMATTR InstName R2
SYMATTR Value 100
SYMBOL res -480 176 R0
SYMATTR InstName R3
SYMATTR Value 77.7K
SYMBOL res -480 64 R0
SYMATTR InstName R4
SYMATTR Value 110K
SYMBOL voltage 208 304 R0
WINDOW 123 0 0 Left 2
WINDOW 39 0 0 Left 2
SYMATTR InstName V1
SYMATTR Value PULSE(0 5 1m 1p 1p 100n 100u)
SYMBOL voltage -544 64 R0
WINDOW 123 0 0 Left 2
WINDOW 39 0 0 Left 2
SYMATTR InstName V2
SYMATTR Value PULSE(0 30 0 1p 1p 2m 4m)
SYMBOL Opamps\\OP07 -240 128 R0
SYMATTR InstName U1
SYMBOL voltage -240 96 R180
WINDOW 123 0 0 Left 2
WINDOW 39 0 0 Left 2
SYMATTR InstName V3
SYMATTR Value 7
SYMBOL voltage -240 368 R180
WINDOW 123 0 0 Left 2
WINDOW 39 0 0 Left 2
SYMATTR InstName V4
SYMATTR Value 7
SYMBOL res -576 176 R0
SYMATTR InstName R5
SYMATTR Value 11.4K
TEXT -312 472 Left 2 !.tran 0 8m 1m uic
TEXT -320 496 Left 2 !.model MYSW SW(Ron=1 Roff=1000Meg Vt=.5 Vh=-.4)
TEXT -96 88 Left 2 !.ic V(InputCap)=6
