Version 4
SHEET 1 892 680
WIRE -432 96 -512 96
WIRE -512 112 -512 96
WIRE -432 112 -432 96
WIRE -112 160 -112 96
WIRE -112 160 -144 160
WIRE -240 176 -272 176
WIRE -224 176 -240 176
WIRE -144 192 -160 192
WIRE -128 192 -144 192
WIRE -32 192 -128 192
WIRE -16 192 -32 192
WIRE 80 192 -16 192
WIRE 144 192 80 192
WIRE 240 192 224 192
WIRE 336 192 320 192
WIRE 464 192 400 192
WIRE -432 208 -432 192
WIRE -368 208 -432 208
WIRE -272 208 -272 176
WIRE -272 208 -288 208
WIRE -224 208 -240 208
WIRE 80 208 80 192
WIRE -432 224 -432 208
WIRE -112 224 -144 224
WIRE 208 256 208 240
WIRE 464 256 464 192
WIRE -240 288 -240 208
WIRE -128 288 -128 192
WIRE -128 288 -240 288
WIRE -112 288 -112 224
WIRE 208 352 208 336
FLAG 80 272 0
FLAG -32 256 0
FLAG 160 240 0
FLAG 208 352 0
FLAG 464 256 0
FLAG -432 304 0
FLAG -512 192 0
FLAG -16 192 InputCap
FLAG -112 368 0
FLAG -112 16 0
FLAG -240 176 Vinp
SYMBOL res 336 176 R90
WINDOW 0 0 56 VBottom 2
WINDOW 3 32 56 VTop 2
SYMATTR InstName R1
SYMATTR Value 130
SYMBOL cap 400 176 R90
WINDOW 0 0 32 VBottom 2
WINDOW 3 32 32 VTop 2
SYMATTR InstName C1
SYMATTR Value 40p
SYMBOL sw 128 192 R270
SYMATTR InstName S1
SYMATTR Value MYSW
SYMBOL cap 64 208 R0
SYMATTR InstName C2
SYMATTR Value 8p
SYMBOL cap -48 192 R0
SYMATTR InstName C3
SYMATTR Value 47n
SYMBOL res -272 192 R90
WINDOW 0 0 56 VBottom 2
WINDOW 3 32 56 VTop 2
SYMATTR InstName R2
SYMATTR Value 100
SYMBOL res -448 208 R0
SYMATTR InstName R3
SYMATTR Value 10K
SYMBOL res -448 96 R0
SYMATTR InstName R4
SYMATTR Value 40K
SYMBOL voltage 208 240 R0
WINDOW 123 0 0 Left 2
WINDOW 39 0 0 Left 2
SYMATTR InstName V1
SYMATTR Value PULSE(0 1 100.01u 1p 1p 100n 0 1)
SYMBOL voltage -512 96 R0
WINDOW 123 0 0 Left 2
WINDOW 39 0 0 Left 2
SYMATTR InstName V2
SYMATTR Value 30
SYMBOL voltage -112 384 R180
WINDOW 123 0 0 Left 2
WINDOW 39 0 0 Left 2
SYMATTR InstName V3
SYMATTR Value 7
SYMBOL voltage -112 112 R180
WINDOW 123 0 0 Left 2
WINDOW 39 0 0 Left 2
SYMATTR InstName V4
SYMATTR Value 7
SYMBOL AutoGenerated\\AD8671 -192 192 R0
SYMATTR InstName U2
TEXT -384 480 Left 2 !.tran 0 100.2u 100u uic
TEXT -384 496 Left 2 !.model MYSW SW(Ron=1 Roff=1Meg Vt=.5 Vh=-.4)
TEXT -208 -56 Left 2 !.ic V(InputCap)=6
TEXT 504 88 Left 2 ;Max CLK: 20MHz
TEXT 504 112 Left 2 ;Acquisition time: 100ns minimum
TEXT -208 -72 Left 2 !.ic V(Vinp)=6
