Version 4
SHEET 1 880 680
WIRE 432 64 336 64
WIRE 80 128 0 128
WIRE 0 144 0 128
WIRE 80 192 64 192
WIRE 64 208 64 192
WIRE 0 256 0 208
WIRE 80 256 0 256
WIRE 352 256 336 256
WIRE 496 256 352 256
WIRE 352 272 352 256
FLAG 352 336 0
FLAG 64 208 0
FLAG 432 144 0
FLAG 496 336 0
SYMBOL PowerProducts\\LT1054 208 160 R0
SYMATTR InstName U1
SYMBOL cap -16 144 R0
SYMATTR InstName C1
SYMATTR Value 10µ
SYMBOL cap 336 272 R0
SYMATTR InstName C2
SYMATTR Value 100µ
SYMBOL voltage 432 48 R0
WINDOW 123 0 0 Left 2
WINDOW 39 0 0 Left 2
SYMATTR InstName V1
SYMATTR Value 12
SYMBOL res 480 240 R0
SYMATTR InstName R1
SYMATTR Value 240
TEXT -18 360 Left 2 !.tran 150m startup uic
