Version 4
SHEET 1 880 680
WIRE 432 -80 304 -80
WIRE 592 -80 528 -80
WIRE 592 48 592 -80
WIRE 128 64 -128 64
WIRE -128 80 -128 64
WIRE 304 96 304 -80
WIRE 224 112 64 112
WIRE 128 144 128 64
WIRE 64 160 64 112
WIRE 96 160 64 160
WIRE -128 176 -128 160
WIRE -128 176 -208 176
WIRE 256 176 160 176
WIRE -128 192 -128 176
WIRE 96 192 32 192
WIRE 224 192 224 112
WIRE 304 192 224 192
WIRE 304 208 304 192
WIRE -208 224 -208 176
WIRE -128 304 -128 272
WIRE 128 304 128 208
WIRE 128 304 -128 304
WIRE 304 304 304 288
WIRE 448 304 448 -32
WIRE 448 304 304 304
WIRE 592 304 592 128
WIRE 592 304 448 304
WIRE 304 320 304 304
FLAG 304 320 0
FLAG -208 224 0
FLAG 32 272 0
SYMBOL Opamps\\OP07 128 112 R0
SYMATTR InstName U1
SYMBOL nmos 256 96 R0
SYMATTR InstName M1
SYMATTR Value RSJ451N04
SYMBOL res 288 192 R0
SYMATTR InstName R1
SYMATTR Value 0.1
SYMBOL voltage 592 32 R0
WINDOW 123 0 0 Left 2
WINDOW 39 0 0 Left 2
SYMATTR InstName V1
SYMATTR Value PULSE(30 -30 0 1 1 0 2)
SYMBOL voltage 32 176 R0
WINDOW 123 0 0 Left 2
WINDOW 39 0 0 Left 2
SYMATTR InstName V2
SYMATTR Value 0.2
SYMBOL voltage -128 64 R0
WINDOW 123 0 0 Left 2
WINDOW 39 0 0 Left 2
SYMATTR InstName V3
SYMATTR Value 12
SYMBOL voltage -128 176 R0
WINDOW 123 0 0 Left 2
WINDOW 39 0 0 Left 2
SYMATTR InstName V4
SYMATTR Value 12
SYMBOL pmos 528 -32 M270
SYMATTR InstName M2
SYMATTR Value FDS4685
TEXT -228 344 Left 2 !.tran 2
